/*--------------------------------*- C++ -*----------------------------------*\
| =========                 |                                                 |
| \\      /  F ield         | OpenFOAM: The Open Source CFD Toolbox           |
|  \\    /   O peration     | Version:  2.3.0                                 |
|   \\  /    A nd           | Web:      www.OpenFOAM.org                      |
|    \\/     M anipulation  |                                                 |
\*---------------------------------------------------------------------------*/
FoamFile
{
    version     2.0;
    format      ascii;
    class       dictionary;
    object      createPatchDict;
}
// * * * * * * * * * * * * * * * * * * * * * * * * * * * * * * * * * * * * * //

// Do a synchronisation of coupled points after creation of any patches.
// Note: this does not work with points that are on multiple coupled patches
//       with transformations (i.e. cyclics).
pointSync false;

// Patches to create.
patches
(
    {
        name            outlet;
        patchInfo
        {
            type            cyclic;
            neighbourPatch  inlet;
        }
        constructFrom patches;
        patches (outlet_c);
    }

    {
        name            inlet;
        patchInfo
        {
            type            cyclic;
            neighbourPatch  outlet;
        }
        constructFrom patches;
        patches (inlet_c);
    }
);

// ************************************************************************* //
